Using: /afs/ir/class/ee/synopsys/hspice/I-2013.12-SP2/hspice/linux/hspice  HG1_1_5_data_eye HG1_1_5_data_eye.lis
 lic: total license checkout elapse time:        0.00(s)
